instances/data_GOC/Phase_0_RTS96/scenario_98/powersystem.raw
 0,  100.000000
rts96_spring_wday.raw / File written by to_psse.gms
5 / 19 / 2015
101, ' 101 ',138,2,1,1,1,1.00,0.00,1.1,0.9,1.1,0.9
102, ' 102 ',138,2,1,1,1,1.00,0.00,1.1,0.9,1.1,0.9
103, ' 103 ',138,1,1,1,1,1.00,0.00,1.1,0.9,1.1,0.9
104, ' 104 ',138,1,1,1,1,1.00,0.00,1.1,0.9,1.1,0.9
105, ' 105 ',138,1,1,1,1,1.00,0.00,1.1,0.9,1.1,0.9
106, ' 106 ',138,1,1,1,1,1.00,0.00,1.1,0.9,1.1,0.9
107, ' 107 ',138,2,1,1,1,1.00,0.00,1.1,0.9,1.1,0.9
108, ' 108 ',138,1,1,1,1,1.00,0.00,1.1,0.9,1.1,0.9
109, ' 109 ',138,1,1,1,1,1.00,0.00,1.1,0.9,1.1,0.9
110, ' 110 ',138,1,1,1,1,1.00,0.00,1.1,0.9,1.1,0.9
111, ' 111 ',230,1,1,1,1,1.00,0.00,1.1,0.9,1.1,0.9
112, ' 112 ',230,1,1,1,1,1.00,0.00,1.1,0.9,1.1,0.9
113, ' 113 ',230,3,1,1,1,1.00,0.00,1.1,0.9,1.1,0.9
114, ' 114 ',230,2,1,1,1,1.00,0.00,1.1,0.9,1.1,0.9
115, ' 115 ',230,2,1,1,1,1.00,0.00,1.1,0.9,1.1,0.9
116, ' 116 ',230,2,1,1,1,1.00,0.00,1.1,0.9,1.1,0.9
117, ' 117 ',230,1,1,1,1,1.00,0.00,1.1,0.9,1.1,0.9
118, ' 118 ',230,2,1,1,1,1.00,0.00,1.1,0.9,1.1,0.9
119, ' 119 ',230,1,1,1,1,1.00,0.00,1.1,0.9,1.1,0.9
120, ' 120 ',230,1,1,1,1,1.00,0.00,1.1,0.9,1.1,0.9
121, ' 121 ',230,2,1,1,1,1.00,0.00,1.1,0.9,1.1,0.9
122, ' 122 ',230,2,1,1,1,1.00,0.00,1.1,0.9,1.1,0.9
123, ' 123 ',230,2,1,1,1,1.00,0.00,1.1,0.9,1.1,0.9
124, ' 124 ',230,1,1,1,1,1.00,0.00,1.1,0.9,1.1,0.9
201, ' 201 ',138,2,1,1,1,1.00,0.00,1.1,0.9,1.1,0.9
202, ' 202 ',138,2,1,1,1,1.00,0.00,1.1,0.9,1.1,0.9
203, ' 203 ',138,1,1,1,1,1.00,0.00,1.1,0.9,1.1,0.9
204, ' 204 ',138,1,1,1,1,1.00,0.00,1.1,0.9,1.1,0.9
205, ' 205 ',138,1,1,1,1,1.00,0.00,1.1,0.9,1.1,0.9
206, ' 206 ',138,1,1,1,1,1.00,0.00,1.1,0.9,1.1,0.9
207, ' 207 ',138,2,1,1,1,1.00,0.00,1.1,0.9,1.1,0.9
208, ' 208 ',138,1,1,1,1,1.00,0.00,1.1,0.9,1.1,0.9
209, ' 209 ',138,1,1,1,1,1.00,0.00,1.1,0.9,1.1,0.9
210, ' 210 ',138,1,1,1,1,1.00,0.00,1.1,0.9,1.1,0.9
211, ' 211 ',230,1,1,1,1,1.00,0.00,1.1,0.9,1.1,0.9
212, ' 212 ',230,1,1,1,1,1.00,0.00,1.1,0.9,1.1,0.9
213, ' 213 ',230,2,1,1,1,1.00,0.00,1.1,0.9,1.1,0.9
214, ' 214 ',230,2,1,1,1,1.00,0.00,1.1,0.9,1.1,0.9
215, ' 215 ',230,2,1,1,1,1.00,0.00,1.1,0.9,1.1,0.9
216, ' 216 ',230,2,1,1,1,1.00,0.00,1.1,0.9,1.1,0.9
217, ' 217 ',230,1,1,1,1,1.00,0.00,1.1,0.9,1.1,0.9
218, ' 218 ',230,2,1,1,1,1.00,0.00,1.1,0.9,1.1,0.9
219, ' 219 ',230,1,1,1,1,1.00,0.00,1.1,0.9,1.1,0.9
220, ' 220 ',230,1,1,1,1,1.00,0.00,1.1,0.9,1.1,0.9
221, ' 221 ',230,2,1,1,1,1.00,0.00,1.1,0.9,1.1,0.9
222, ' 222 ',230,2,1,1,1,1.00,0.00,1.1,0.9,1.1,0.9
223, ' 223 ',230,2,1,1,1,1.00,0.00,1.1,0.9,1.1,0.9
224, ' 224 ',230,1,1,1,1,1.00,0.00,1.1,0.9,1.1,0.9
301, ' 301 ',138,2,1,1,1,1.00,0.00,1.1,0.9,1.1,0.9
302, ' 302 ',138,2,1,1,1,1.00,0.00,1.1,0.9,1.1,0.9
303, ' 303 ',138,1,1,1,1,1.00,0.00,1.1,0.9,1.1,0.9
304, ' 304 ',138,1,1,1,1,1.00,0.00,1.1,0.9,1.1,0.9
305, ' 305 ',138,1,1,1,1,1.00,0.00,1.1,0.9,1.1,0.9
306, ' 306 ',138,1,1,1,1,1.00,0.00,1.1,0.9,1.1,0.9
307, ' 307 ',138,2,1,1,1,1.00,0.00,1.1,0.9,1.1,0.9
308, ' 308 ',138,1,1,1,1,1.00,0.00,1.1,0.9,1.1,0.9
309, ' 309 ',138,1,1,1,1,1.00,0.00,1.1,0.9,1.1,0.9
310, ' 310 ',138,1,1,1,1,1.00,0.00,1.1,0.9,1.1,0.9
311, ' 311 ',230,1,1,1,1,1.00,0.00,1.1,0.9,1.1,0.9
312, ' 312 ',230,1,1,1,1,1.00,0.00,1.1,0.9,1.1,0.9
313, ' 313 ',230,2,1,1,1,1.00,0.00,1.1,0.9,1.1,0.9
314, ' 314 ',230,2,1,1,1,1.00,0.00,1.1,0.9,1.1,0.9
315, ' 315 ',230,2,1,1,1,1.00,0.00,1.1,0.9,1.1,0.9
316, ' 316 ',230,2,1,1,1,1.00,0.00,1.1,0.9,1.1,0.9
317, ' 317 ',230,1,1,1,1,1.00,0.00,1.1,0.9,1.1,0.9
318, ' 318 ',230,2,1,1,1,1.00,0.00,1.1,0.9,1.1,0.9
319, ' 319 ',230,1,1,1,1,1.00,0.00,1.1,0.9,1.1,0.9
320, ' 320 ',230,1,1,1,1,1.00,0.00,1.1,0.9,1.1,0.9
321, ' 321 ',230,2,1,1,1,1.00,0.00,1.1,0.9,1.1,0.9
322, ' 322 ',230,2,1,1,1,1.00,0.00,1.1,0.9,1.1,0.9
323, ' 323 ',230,2,1,1,1,1.00,0.00,1.1,0.9,1.1,0.9
324, ' 324 ',230,1,1,1,1,1.00,0.00,1.1,0.9,1.1,0.9
325, ' 325 ',230,1,1,1,1,1.00,0.00,1.1,0.9,1.1,0.9
0 / END OF BUS DATA, BEGIN LOAD DATA
101, '1 ',1,11,11,64.52070830457285,16.995600096149648,0.0,0.0,0.0,0.0,1,1,0
102, '1 ',1,11,12,52.60560192785519,17.42759889651742,0.0,0.0,0.0,0.0,1,1,0
103, '1 ',1,11,11,155.02254359450285,23.42244050949127,0.0,0.0,0.0,0.0,1,1,0
104, '1 ',1,11,11,55.831737782702405,7.500971345031168,0.0,0.0,0.0,0.0,1,1,0
105, '1 ',1,11,11,48.102310952380165,8.283608232771511,0.0,0.0,0.0,0.0,1,1,0
106, '1 ',1,11,12,66.12694097394348,16.896772316588645,0.0,0.0,0.0,0.0,1,1,0
107, '1 ',1,11,12,71.22383941202425,18.52292415119125,0.0,0.0,0.0,0.0,1,1,0
108, '1 ',1,11,12,153.82288473486594,26.040081814266276,0.0,0.0,0.0,0.0,1,1,0
109, '1 ',1,11,13,146.20584661301925,18.703529789326897,0.0,0.0,0.0,0.0,1,1,0
110, '1 ',1,11,13,163.4840787696694,34.179185435419896,0.0,0.0,0.0,0.0,1,1,0
111, '1 ',1,11,13,0.0,0.0,0.0,0.0,0.0,0.0,1,1,0
112, '1 ',1,11,13,0.0,0.0,0.0,0.0,0.0,0.0,1,1,0
113, '1 ',1,12,14,203.90754125810463,29.3645781336436,0.0,0.0,0.0,0.0,1,1,0
114, '1 ',1,12,16,139.95232049678788,27.984388367010748,0.0,0.0,0.0,0.0,1,1,0
115, '1 ',1,12,16,181.8329722376211,40.9997147323966,0.0,0.0,0.0,0.0,1,1,0
116, '1 ',1,12,16,48.717543972968116,12.069224667040631,0.0,0.0,0.0,0.0,1,1,0
117, '1 ',1,12,17,0.0,0.0,0.0,0.0,0.0,0.0,1,1,0
118, '1 ',1,12,17,242.0712821085179,37.29276320368611,0.0,0.0,0.0,0.0,1,1,0
119, '1 ',1,12,15,120.06417482543189,21.81557581811417,0.0,0.0,0.0,0.0,1,1,0
120, '1 ',1,12,15,109.75963913514019,14.492095974591562,0.0,0.0,0.0,0.0,1,1,0
121, '1 ',1,12,17,0.0,0.0,0.0,0.0,0.0,0.0,1,1,0
122, '1 ',1,12,17,0.0,0.0,0.0,0.0,0.0,0.0,1,1,0
123, '1 ',1,12,15,0.0,0.0,0.0,0.0,0.0,0.0,1,1,0
124, '1 ',1,12,16,0.0,0.0,0.0,0.0,0.0,0.0,1,1,0
201, '1 ',1,21,21,61.27864635101649,10.797409436566102,0.0,0.0,0.0,0.0,1,1,0
202, '1 ',1,21,22,69.36909166154126,15.47267008474376,0.0,0.0,0.0,0.0,1,1,0
203, '1 ',1,21,21,128.16417786310987,28.456807768007828,0.0,0.0,0.0,0.0,1,1,0
204, '1 ',1,21,21,44.691881611082884,7.45635264286911,0.0,0.0,0.0,0.0,1,1,0
205, '1 ',1,21,21,37.54610479957927,7.69978418933982,0.0,0.0,0.0,0.0,1,1,0
206, '1 ',1,21,22,92.97673768150248,23.259523071952163,0.0,0.0,0.0,0.0,1,1,0
207, '1 ',1,21,22,69.15197126938146,14.940390094810862,0.0,0.0,0.0,0.0,1,1,0
208, '1 ',1,21,22,133.5536344863835,20.550927780843804,0.0,0.0,0.0,0.0,1,1,0
209, '1 ',1,21,23,112.50940463595441,23.137594408463872,0.0,0.0,0.0,0.0,1,1,0
210, '1 ',1,21,23,119.14090583055722,22.254904153827574,0.0,0.0,0.0,0.0,1,1,0
211, '1 ',1,21,23,0.0,0.0,0.0,0.0,0.0,0.0,1,1,0
212, '1 ',1,21,23,0.0,0.0,0.0,0.0,0.0,0.0,1,1,0
213, '1 ',1,22,24,229.5541789389665,33.450556339816096,0.0,0.0,0.0,0.0,1,1,0
214, '1 ',1,22,26,174.39195999173373,24.816889540179588,0.0,0.0,0.0,0.0,1,1,0
215, '1 ',1,22,26,284.9416562739511,35.36917838750481,0.0,0.0,0.0,0.0,1,1,0
216, '1 ',1,22,26,58.41463456481695,10.487075001318008,0.0,0.0,0.0,0.0,1,1,0
217, '1 ',1,22,27,0.0,0.0,0.0,0.0,0.0,0.0,1,1,0
218, '1 ',1,22,27,198.031323933153,49.08502863550745,0.0,0.0,0.0,0.0,1,1,0
219, '1 ',1,22,25,151.3282335393147,19.236362995545985,0.0,0.0,0.0,0.0,1,1,0
220, '1 ',1,22,25,73.23116128537059,17.41011839432996,0.0,0.0,0.0,0.0,1,1,0
221, '1 ',1,22,27,0.0,0.0,0.0,0.0,0.0,0.0,1,1,0
222, '1 ',1,22,27,0.0,0.0,0.0,0.0,0.0,0.0,1,1,0
223, '1 ',1,22,25,0.0,0.0,0.0,0.0,0.0,0.0,1,1,0
224, '1 ',1,22,26,0.0,0.0,0.0,0.0,0.0,0.0,1,1,0
301, '1 ',1,31,31,74.28168510679956,16.325259517741017,0.0,0.0,0.0,0.0,1,1,0
302, '1 ',1,31,32,71.27845046065576,12.919492100131697,0.0,0.0,0.0,0.0,1,1,0
303, '1 ',1,31,31,89.20498790074232,25.15835048534344,0.0,0.0,0.0,0.0,1,1,0
304, '1 ',1,31,31,61.028224028831715,8.628312945079989,0.0,0.0,0.0,0.0,1,1,0
305, '1 ',1,31,31,46.1465823123822,11.12028868308887,0.0,0.0,0.0,0.0,1,1,0
306, '1 ',1,31,32,101.43155120883623,24.985590291759745,0.0,0.0,0.0,0.0,1,1,0
307, '1 ',1,31,32,74.48261522363755,16.540586274320958,0.0,0.0,0.0,0.0,1,1,0
308, '1 ',1,31,32,103.83309631890356,28.99759954518615,0.0,0.0,0.0,0.0,1,1,0
309, '1 ',1,31,33,111.51319989762968,31.14906755357478,0.0,0.0,0.0,0.0,1,1,0
310, '1 ',1,31,33,172.10186101454474,30.747839737571773,0.0,0.0,0.0,0.0,1,1,0
311, '1 ',1,31,33,0.0,0.0,0.0,0.0,0.0,0.0,1,1,0
312, '1 ',1,31,33,0.0,0.0,0.0,0.0,0.0,0.0,1,1,0
313, '1 ',1,32,34,236.31629094152248,39.76669708503206,0.0,0.0,0.0,0.0,1,1,0
314, '1 ',1,32,36,134.04563992934862,25.71352652652869,0.0,0.0,0.0,0.0,1,1,0
315, '1 ',1,32,36,238.25170664739858,34.05943693574667,0.0,0.0,0.0,0.0,1,1,0
316, '1 ',1,32,36,79.8004010684369,14.557124358220026,0.0,0.0,0.0,0.0,1,1,0
317, '1 ',1,32,37,0.0,0.0,0.0,0.0,0.0,0.0,1,1,0
318, '1 ',1,32,37,240.07649392350984,33.59857021469269,0.0,0.0,0.0,0.0,1,1,0
319, '1 ',1,32,35,95.39239288784489,18.19382328339368,0.0,0.0,0.0,0.0,1,1,0
320, '1 ',1,32,35,97.51464656859041,15.499372435483151,0.0,0.0,0.0,0.0,1,1,0
321, '1 ',1,32,37,0.0,0.0,0.0,0.0,0.0,0.0,1,1,0
322, '1 ',1,32,37,0.0,0.0,0.0,0.0,0.0,0.0,1,1,0
323, '1 ',1,32,35,0.0,0.0,0.0,0.0,0.0,0.0,1,1,0
324, '1 ',1,32,36,0.0,0.0,0.0,0.0,0.0,0.0,1,1,0
325, '1 ',1,32,35,0.0,0.0,0.0,0.0,0.0,0.0,1,1,0
0 / END OF LOAD DATA, BEGIN FIXED SHUNT DATA
0 / END OF FIXED SHUNT DATA, BEGIN GENERATOR DATA
101,1,10,0,10.086666883900762,-1.5480638458393514,1.035,0,24,0,1,0,0,1,1,100,16.347904462367296,13.404456011783331,1,1,0,1
101,2,10,0,9.26574058830738,-3.3229969781823456,1.035,0,24,0,1,0,0,1,1,100,24.021231496706605,19.23048263732344,1,1,0,1
101,3,76,14.1,38.366051861085,-25.371894610347226,1.035,0,89,0,1,0,0,1,1,100,90.09713212456553,30.988495756350446,1,1,0,1
101,4,76,14.1,28.74840877018869,-16.918655560119078,1.035,0,89,0,1,0,0,1,1,100,54.74768638052046,2.2490977030684367,1,1,0,1
102,5,10,0,11.761408048681915,-1.0540369902737439,1.035,0,24,0,1,0,0,1,1,100,15.302639582194386,11.31296259271912,1,1,0,1
102,6,10,0,7.893218420911579,0.308353576809167,1.035,0,24,0,1,0,0,1,1,100,17.192346866242588,12.284451075298712,1,1,0,1
102,7,76,7,32.17297363746911,-7.378017765935503,1.035,0,89,0,1,0,0,1,1,100,97.82407023403793,46.036813528873026,1,1,0,1
102,8,76,7,38.72803064435721,-25.077560502802946,1.035,0,89,0,1,0,0,1,1,100,60.51658543683588,9.450029591153145,1,1,0,1
107,9,80,17.2,45.976354974322014,-9.225767266005285,1.025,0,118,0,1,0,0,1,1,100,91.68099856935441,12.83790672547184,1,1,0,1
107,10,80,17.2,61.14477364718915,-9.605113587342196,1.025,0,118,0,1,0,0,1,1,100,117.96086134854704,23.99996095802635,1,1,0,1
107,11,80,17.2,71.6406809007749,25.232374479062862,1.025,0,118,0,1,0,0,1,1,100,94.31986632756889,40.54930887301453,1,1,0,1
113,12,95.1,40.7,69.70622386410832,-12.015903979539871,1.02,0,232,0,1,0,0,1,1,100,185.19015442328526,87.69307015755446,1,1,0,1
113,13,95.1,40.7,81.94381808489561,4.698237262666225,1.02,0,232,0,1,0,0,1,1,100,228.5892486848403,62.55778678948758,1,1,0,1
113,14,95.1,40.7,66.07511483505368,-13.440844316035509,1.02,0,232,0,1,0,0,1,1,100,217.03115597143767,62.915083399557005,1,1,0,1
114,15,0,13.7,189.08570212312043,-109.77856032317504,0.98,0,100,0,1,0,0,1,1,100,0.0,0.0,1,1,0,1
115,16,12,0,7.601771058607846,1.1784061392769205,1.014,0,14,0,1,0,0,1,1,100,9.850590725429356,0.7435737498477106,1,1,0,1
115,17,12,0,7.245907400082798,-0.23815105855464935,1.014,0,14,0,1,0,0,1,1,100,11.963632281683385,4.172230804078281,1,1,0,1
115,18,12,0,5.469457485247403,-2.325741639733315,1.014,0,14,0,1,0,0,1,1,100,14.776124979369342,7.4118142959103,1,1,0,1
115,19,12,0,6.151668390445412,1.5208661966957164,1.014,0,14,0,1,0,0,1,1,100,13.00861601550132,0.927122922576963,1,1,0,1
115,20,12,0,7.370571956411005,0.5186572417616855,1.014,0,14,0,1,0,0,1,1,100,13.924608778953553,4.915491898655894,1,1,0,1
115,21,155,0.05,99.07646556198597,-19.516535385977477,1.014,0,182,0,1,0,0,1,1,100,134.53468932653777,31.6263788577984,1,1,0,1
116,22,155,25.22,83.59374807029963,-53.82834227383137,1.017,0,182,0,1,0,0,1,1,100,156.22763292794116,69.8648795368732,1,1,0,1
118,23,400,137.4,195.21976276300848,-50.468682881910354,1.05,0,471,0,1,0,0,1,1,100,479.8365924321115,133.303979835473,1,1,0,1
121,24,400,108.2,196.64216902107,-68.89383595902473,1.05,0,471,0,1,0,0,1,1,100,299.9610593356192,191.48560760778537,1,1,0,1
122,25,50,-4.96,11.454588370770216,-11.53355214372277,1.05,0,53,0,1,0,0,1,1,100,38.639949418138706,3.2462487020529736,1,1,0,1
122,26,50,-4.96,19.05978729724884,-5.659547770861536,1.05,0,53,0,1,0,0,1,1,100,62.59271885501221,42.238162224596465,1,1,0,1
122,27,50,-4.96,13.313573298603295,-20.159614793304357,1.05,0,53,0,1,0,0,1,1,100,47.52857469255105,14.360843471570604,1,1,0,1
122,28,50,-4.96,16.881698521226646,-12.192250163480637,1.05,0,53,0,1,0,0,1,1,100,42.20142449019477,31.31863477091293,1,1,0,1
122,29,50,-4.96,17.661571476608515,-6.4177154672332115,1.05,0,53,0,1,0,0,1,1,100,50.35369915887713,47.320802914375356,1,1,0,1
122,30,50,-4.96,19.78539693579078,-10.007912809401748,1.05,0,53,0,1,0,0,1,1,100,49.00269295554608,45.56704752335239,1,1,0,1
123,31,155,31.79,95.73986028879881,-57.76059380127117,1.05,0,182,0,1,0,0,1,1,100,154.0129941161722,75.88068862855435,1,1,0,1
123,32,155,31.79,97.76260436326265,-13.123685868922607,1.05,0,182,0,1,0,0,1,1,100,168.3922196587082,82.04999476541998,1,1,0,1
123,33,350,71.78,163.49729653447866,15.552752802614123,1.05,0,412,0,1,0,0,1,1,100,258.9408999728039,55.042626863811165,1,1,0,1
201,34,10,0,9.545949006918818,-1.5395268271677196,1.035,0,24,0,1,0,0,1,1,100,23.216523814946413,20.10854406666942,1,1,0,1
201,35,10,0,9.68992908578366,-0.3320303843356669,1.035,0,24,0,1,0,0,1,1,100,21.34103603567928,16.87272797798738,1,1,0,1
201,36,76,14.1,27.384717720095068,-24.234185138950124,1.035,0,89,0,1,0,0,1,1,100,62.80380504094064,12.65176804713905,1,1,0,1
201,37,76,14.1,21.296553997322917,-30.828145295847207,1.035,0,89,0,1,0,0,1,1,100,53.24599337019026,1.5863599397987187,1,1,0,1
202,38,10,0,12.509518732782453,1.599589817225933,1.035,0,24,0,1,0,0,1,1,100,19.7435070797801,14.85632847102359,1,1,0,1
202,39,10,0,12.752997342962772,4.5699634943157434,1.035,0,24,0,1,0,0,1,1,100,23.281161232851446,17.91656749887392,1,1,0,1
202,40,76,7,22.452603441663083,-38.311418040888384,1.035,0,89,0,1,0,0,1,1,100,71.17952315751464,7.945238770730803,1,1,0,1
202,41,76,7,21.809096123557538,-30.322397663956508,1.035,0,89,0,1,0,0,1,1,100,88.44716848637908,43.1314164858684,1,1,0,1
207,42,80,17.2,76.09577304404229,22.050549485720694,1.025,0,118,0,1,0,0,1,1,100,84.37668996863067,17.190165816573426,1,1,0,1
207,43,80,17.2,72.90009822137654,17.203553547151387,1.025,0,118,0,1,0,0,1,1,100,75.44623036403209,57.50079191594814,1,1,0,1
207,44,80,17.2,72.66711410321295,15.300751456059515,1.025,0,118,0,1,0,0,1,1,100,94.21987039037049,9.89995185052976,1,1,0,1
213,45,95.1,40.7,90.11815257743001,20.02647026628256,1.02,0,232,0,1,0,0,1,1,100,167.97623015926217,42.39690759520741,1,1,0,1
213,46,95.1,40.7,79.35228130221367,-9.198364946991205,1.02,0,232,0,1,0,0,1,1,100,237.98106934772807,144.70338405472694,1,1,0,1
213,47,95.1,40.7,57.84112089499831,-1.994849681854241,1.02,0,232,0,1,0,0,1,1,100,165.11865308587437,51.38938259702638,1,1,0,1
214,48,0,13.68,184.98542219400406,-93.61150008393452,0.98,0,100,0,1,0,0,1,1,100,0.0,0.0,1,1,0,1
215,49,12,0,6.167466931790113,0.5837951486930244,1.014,0,14,0,1,0,0,1,1,100,9.20260523725301,0.7721547897532588,1,1,0,1
215,50,12,0,4.452538258396089,-1.7214507319964474,1.014,0,14,0,1,0,0,1,1,100,11.30736449752003,2.341576816923917,1,1,0,1
215,51,12,0,4.9789280757308,-1.8281990323215735,1.014,0,14,0,1,0,0,1,1,100,9.814557654596864,8.67270148822231,1,1,0,1
215,52,12,0,5.758062259107827,-0.2038318874314431,1.014,0,14,0,1,0,0,1,1,100,10.36241357624531,2.3151430875062964,1,1,0,1
215,53,12,0,6.750613101571798,0.3340421933680773,1.014,0,14,0,1,0,0,1,1,100,9.160660582780837,0.8961893878877163,1,1,0,1
215,54,155,0.048,59.10083694383502,-38.78499915357679,1.014,0,182,0,1,0,0,1,1,100,109.95810347190125,32.67170190858886,1,1,0,1
216,55,155,25.22,70.52048019319773,-32.77276042662561,1.017,0,182,0,1,0,0,1,1,100,108.58488699723966,8.079919637553402,1,1,0,1
218,56,400,137.4,227.92187759652737,-92.78526273090395,1.05,0,471,0,1,0,0,1,1,100,464.35327172279364,141.2565916543827,1,1,0,1
221,57,400,108.2,167.24591951817274,-102.59848493849859,1.05,0,471,0,1,0,0,1,1,100,390.49201272428036,44.4605639250949,1,1,0,1
222,58,50,-4.96,17.79678343459964,-11.214693591929972,1.05,0,53,0,1,0,0,1,1,100,49.07716179266572,2.3995486507192254,1,1,0,1
222,59,50,-4.96,17.833316522836686,-12.239822123758493,1.05,0,53,0,1,0,0,1,1,100,51.15092960884795,14.692666658665992,1,1,0,1
222,60,50,-4.96,20.484159599989653,-8.996269455552103,1.05,0,53,0,1,0,0,1,1,100,42.670890025328845,21.670997816027977,1,1,0,1
222,61,50,-4.96,16.195484849065544,-8.398711797688154,1.05,0,53,0,1,0,0,1,1,100,52.053532239515334,1.1369375162757933,1,1,0,1
222,62,50,-4.96,11.344392117857932,-17.21098834006116,1.05,0,53,0,1,0,0,1,1,100,58.7209612550214,16.219136347062893,1,1,0,1
222,63,50,-4.96,19.440273319929837,-2.304510039370509,1.05,0,53,0,1,0,0,1,1,100,61.9115888979286,36.80806096824943,1,1,0,1
223,64,155,31.79,96.29709127917886,-2.5275790356099606,1.05,0,182,0,1,0,0,1,1,100,133.077473399695,18.294730316707856,1,1,0,1
223,65,155,31.79,66.86825740709901,-80.80686357989907,1.05,0,182,0,1,0,0,1,1,100,169.63083706377074,67.97894358534832,1,1,0,1
223,66,350,71.78,182.46472565224394,41.12180908094163,1.05,0,412,0,1,0,0,1,1,100,375.49397365888586,213.70551323657864,1,1,0,1
301,67,10,0,11.55320997396484,1.684165311511606,1.035,0,24,0,1,0,0,1,1,100,23.040937980636954,18.05153009787202,1,1,0,1
301,68,10,0,11.534842143766582,3.4902430451475084,1.035,0,24,0,1,0,0,1,1,100,17.88674949016422,14.642225032150746,1,1,0,1
301,69,76,14.1,21.755638696253296,-27.115064588375393,1.035,0,89,0,1,0,0,1,1,100,75.74198672715575,14.624781156517571,1,1,0,1
301,70,76,14.1,24.146186863537874,-43.992765319300815,1.035,0,89,0,1,0,0,1,1,100,74.75391969885678,3.6485509653016948,1,1,0,1
302,71,10,0,9.024604309350252,-3.046806908212602,1.035,0,24,0,1,0,0,1,1,100,23.786386503838003,20.61722608467564,1,1,0,1
302,72,10,0,8.669150952249765,1.2824690714478502,1.035,0,24,0,1,0,0,1,1,100,18.321241171099246,15.065549370385707,1,1,0,1
302,73,76,7,26.352726620156318,-20.224039586493745,1.035,0,89,0,1,0,0,1,1,100,79.9340963801369,35.76242868434638,1,1,0,1
302,74,76,7,30.96972200414166,-31.01988128130325,1.035,0,89,0,1,0,0,1,1,100,55.057276969216765,5.6390403212234474,1,1,0,1
307,75,80,17.2,58.89116655383259,1.7285533212125301,1.025,0,118,0,1,0,0,1,1,100,80.63471728935838,8.07010497781448,1,1,0,1
307,76,80,17.2,52.35580946691334,2.2712277062237263,1.025,0,118,0,1,0,0,1,1,100,121.38861684594305,38.778096472378834,1,1,0,1
307,77,80,17.2,47.905579992569976,-7.522321290336556,1.025,0,118,0,1,0,0,1,1,100,80.67610187456012,19.73982905852609,1,1,0,1
313,78,95.1,40.7,82.15773962065578,-10.611348241567612,1.02,0,232,0,1,0,0,1,1,100,212.3677868981846,97.25092255680357,1,1,0,1
313,79,95.1,40.7,84.01372462511063,-16.885221194475903,1.02,0,232,0,1,0,0,1,1,100,162.1622140181251,39.01247894506204,1,1,0,1
313,80,95.1,40.7,64.53309988602996,-18.8193327113986,1.02,0,232,0,1,0,0,1,1,100,208.92043532952664,56.26893040955761,1,1,0,1
314,81,0,13.68,224.04115891084072,-51.88153989613059,0.98,0,100,0,1,0,0,1,1,100,0.0,0.0,1,1,0,1
315,82,12,0,4.34080315651372,-2.983848928101361,1.014,0,14,0,1,0,0,1,1,100,10.250256689451634,0.960778093747793,1,1,0,1
315,83,12,0,4.823251449130475,-2.2602881357073796,1.014,0,14,0,1,0,0,1,1,100,13.661219825036824,3.9954142301157116,1,1,0,1
315,84,12,0,4.449042691290378,-3.2666748776100585,1.014,0,14,0,1,0,0,1,1,100,13.656168632023038,1.2786861219629646,1,1,0,1
315,85,12,0,5.141078939661384,-2.105602772254498,1.014,0,14,0,1,0,0,1,1,100,13.382960377447306,3.086858910731971,1,1,0,1
315,86,12,0,6.6899816595017905,2.0273027786985036,1.014,0,14,0,1,0,0,1,1,100,8.55529072880745,3.329536555850369,1,1,0,1
315,87,155,0.048,80.05848087370396,-75.41794370207936,1.014,0,182,0,1,0,0,1,1,100,176.37762711476535,58.220786431944006,1,1,0,1
316,88,155,25.22,85.1948057487607,-48.995723384898156,1.017,0,182,0,1,0,0,1,1,100,178.04614792601205,71.84185273181647,1,1,0,1
318,89,400,137.4,204.02495453134176,22.627557215746464,1.05,0,471,0,1,0,0,1,1,100,311.03134602308273,126.11239512889077,1,1,0,1
321,90,400,108.2,245.05307977087796,47.43538406910375,1.05,0,471,0,1,0,0,1,1,100,417.9694557748735,78.65703674033284,1,1,0,1
322,91,50,-4.96,20.389056620001796,-8.463205855712292,1.05,0,53,0,1,0,0,1,1,100,64.10563600482419,1.0439707338810038,1,1,0,1
322,92,50,-4.96,17.06469980850816,-2.8037082224152954,1.05,0,53,0,1,0,0,1,1,100,35.692787459120154,10.094447542594375,1,1,0,1
322,93,50,-4.96,17.636355647444724,-2.4315639480017133,1.05,0,53,0,1,0,0,1,1,100,44.85319572733715,7.438612994737923,1,1,0,1
322,94,50,-4.96,14.32783813625574,-16.52546944636852,1.05,0,53,0,1,0,0,1,1,100,43.65003540646285,36.38861627096793,1,1,0,1
322,95,50,-4.96,19.81711616292596,-8.818935138918459,1.05,0,53,0,1,0,0,1,1,100,55.25274064624682,26.294752770474,1,1,0,1
322,96,50,-4.96,16.320108467340468,-7.525620166677985,1.05,0,53,0,1,0,0,1,1,100,63.56829009484499,9.67642362462356,1,1,0,1
323,97,155,31.79,58.58346275240183,-51.06452103285119,1.05,0,182,0,1,0,0,1,1,100,150.84354080911726,24.383121817559,1,1,0,1
323,98,155,31.79,92.9452537856996,-11.949947831686572,1.05,0,182,0,1,0,0,1,1,100,129.31511288369074,1.827307608595575,1,1,0,1
323,99,350,71.78,113.06652455125003,-35.794065566733465,1.05,0,412,0,1,0,0,1,1,100,366.7605565325357,119.75157019030303,1,1,0,1
0 / END OF GENERATOR DATA, BEGIN BRANCH DATA
101,102,1,0.003,0.014,0.461,210.0,231.6,240.0,0,0,0,0,1,1,0,1,1
101,103,1,0.055,0.211,0.057,210.0,249.6,264.0,0,0,0,0,1,1,0,1,1
101,105,1,0.022,0.085,0.023,210.0,249.6,264.0,0,0,0,0,1,1,0,1,1
102,104,1,0.033,0.127,0.034,210.0,249.6,264.0,0,0,0,0,1,1,0,1,1
102,106,1,0.05,0.192,0.052,210.0,249.6,264.0,0,0,0,0,1,1,0,1,1
103,109,1,0.031,0.119,0.032,210.0,249.6,264.0,0,0,0,0,1,1,0,1,1
104,109,1,0.027,0.104,0.028,210.0,249.6,264.0,0,0,0,0,1,1,0,1,1
105,110,1,0.023,0.088,0.024,210.0,249.6,264.0,0,0,0,0,1,1,0,1,1
106,110,1,0.014,0.061,2.459,210.0,231.6,240.0,0,0,0,0,1,1,0,1,1
107,108,1,0.016,0.061,0.017,210.0,249.6,264.0,0,0,0,0,1,1,0,1,1
107,203,1,0.042,0.161,0.044,210.0,249.6,264.0,0,0,0,0,1,1,0,1,1
108,109,1,0.043,0.165,0.045,210.0,249.6,264.0,0,0,0,0,1,1,0,1,1
108,110,1,0.043,0.165,0.045,210.0,249.6,264.0,0,0,0,0,1,1,0,1,1
111,113,1,0.006,0.048,0.1,600.0,720.0,750.0,0,0,0,0,1,1,0,1,1
111,114,1,0.005,0.042,0.088,600.0,720.0,750.0,0,0,0,0,1,1,0,1,1
112,113,1,0.006,0.048,0.1,600.0,720.0,750.0,0,0,0,0,1,1,0,1,1
112,123,1,0.012,0.097,0.203,600.0,720.0,750.0,0,0,0,0,1,1,0,1,1
113,123,1,0.011,0.087,0.182,600.0,720.0,750.0,0,0,0,0,1,1,0,1,1
113,215,1,0.01,0.075,0.158,600.0,720.0,750.0,0,0,0,0,1,1,0,1,1
114,116,1,0.005,0.059,0.082,600.0,720.0,750.0,0,0,0,0,1,1,0,1,1
115,116,1,0.002,0.017,0.036,600.0,720.0,750.0,0,0,0,0,1,1,0,1,1
115,121,1,0.006,0.049,0.103,600.0,720.0,750.0,0,0,0,0,1,1,0,1,1
115,121,2,0.006,0.049,0.103,600.0,720.0,750.0,0,0,0,0,1,1,0,1,1
115,124,1,0.007,0.052,0.109,600.0,720.0,750.0,0,0,0,0,1,1,0,1,1
116,117,1,0.003,0.026,0.055,600.0,720.0,750.0,0,0,0,0,1,1,0,1,1
116,119,1,0.003,0.023,0.049,600.0,720.0,750.0,0,0,0,0,1,1,0,1,1
117,118,1,0.002,0.014,0.03,600.0,720.0,750.0,0,0,0,0,1,1,0,1,1
117,122,1,0.014,0.105,0.221,600.0,720.0,750.0,0,0,0,0,1,1,0,1,1
118,121,1,0.003,0.026,0.055,600.0,720.0,750.0,0,0,0,0,1,1,0,1,1
118,121,2,0.003,0.026,0.055,600.0,720.0,750.0,0,0,0,0,1,1,0,1,1
119,120,1,0.005,0.04,0.083,600.0,720.0,750.0,0,0,0,0,1,1,0,1,1
119,120,2,0.005,0.04,0.083,600.0,720.0,750.0,0,0,0,0,1,1,0,1,1
120,123,1,0.003,0.022,0.046,600.0,720.0,750.0,0,0,0,0,1,1,0,1,1
120,123,2,0.003,0.022,0.046,600.0,720.0,750.0,0,0,0,0,1,1,0,1,1
121,122,1,0.009,0.068,0.142,600.0,720.0,750.0,0,0,0,0,1,1,0,1,1
123,217,1,0.01,0.074,0.155,600.0,720.0,750.0,0,0,0,0,1,1,0,1,1
201,202,1,0.003,0.014,0.461,210.0,231.6,240.0,0,0,0,0,1,1,0,1,1
201,203,1,0.055,0.211,0.057,210.0,249.6,264.0,0,0,0,0,1,1,0,1,1
201,205,1,0.022,0.085,0.023,210.0,249.6,264.0,0,0,0,0,1,1,0,1,1
202,204,1,0.033,0.127,0.034,210.0,249.6,264.0,0,0,0,0,1,1,0,1,1
202,206,1,0.05,0.192,0.052,210.0,249.6,264.0,0,0,0,0,1,1,0,1,1
203,209,1,0.031,0.119,0.032,210.0,249.6,264.0,0,0,0,0,1,1,0,1,1
204,209,1,0.027,0.104,0.028,210.0,249.6,264.0,0,0,0,0,1,1,0,1,1
205,210,1,0.023,0.088,0.024,210.0,249.6,264.0,0,0,0,0,1,1,0,1,1
206,210,1,0.014,0.061,2.459,210.0,231.6,240.0,0,0,0,0,1,1,0,1,1
207,208,1,0.016,0.061,0.017,210.0,249.6,264.0,0,0,0,0,1,1,0,1,1
208,209,1,0.043,0.165,0.045,210.0,249.6,264.0,0,0,0,0,1,1,0,1,1
208,210,1,0.043,0.165,0.045,210.0,249.6,264.0,0,0,0,0,1,1,0,1,1
211,213,1,0.006,0.048,0.1,600.0,720.0,750.0,0,0,0,0,1,1,0,1,1
211,214,1,0.005,0.042,0.088,600.0,720.0,750.0,0,0,0,0,1,1,0,1,1
212,213,1,0.006,0.048,0.1,600.0,720.0,750.0,0,0,0,0,1,1,0,1,1
212,223,1,0.012,0.097,0.203,600.0,720.0,750.0,0,0,0,0,1,1,0,1,1
213,223,1,0.011,0.087,0.182,600.0,720.0,750.0,0,0,0,0,1,1,0,1,1
214,216,1,0.005,0.059,0.082,600.0,720.0,750.0,0,0,0,0,1,1,0,1,1
215,216,1,0.002,0.017,0.036,600.0,720.0,750.0,0,0,0,0,1,1,0,1,1
215,221,1,0.006,0.049,0.103,600.0,720.0,750.0,0,0,0,0,1,1,0,1,1
215,221,2,0.006,0.049,0.103,600.0,720.0,750.0,0,0,0,0,1,1,0,1,1
215,224,1,0.007,0.052,0.109,600.0,720.0,750.0,0,0,0,0,1,1,0,1,1
216,217,1,0.003,0.026,0.055,600.0,720.0,750.0,0,0,0,0,1,1,0,1,1
216,219,1,0.003,0.023,0.049,600.0,720.0,750.0,0,0,0,0,1,1,0,1,1
217,218,1,0.002,0.014,0.03,600.0,720.0,750.0,0,0,0,0,1,1,0,1,1
217,222,1,0.014,0.105,0.221,600.0,720.0,750.0,0,0,0,0,1,1,0,1,1
218,221,1,0.003,0.026,0.055,600.0,720.0,750.0,0,0,0,0,1,1,0,1,1
218,221,2,0.003,0.026,0.055,600.0,720.0,750.0,0,0,0,0,1,1,0,1,1
219,220,1,0.005,0.04,0.083,600.0,720.0,750.0,0,0,0,0,1,1,0,1,1
219,220,2,0.005,0.04,0.083,600.0,720.0,750.0,0,0,0,0,1,1,0,1,1
220,223,1,0.003,0.022,0.046,600.0,720.0,750.0,0,0,0,0,1,1,0,1,1
220,223,2,0.003,0.022,0.046,600.0,720.0,750.0,0,0,0,0,1,1,0,1,1
221,222,1,0.009,0.068,0.142,600.0,720.0,750.0,0,0,0,0,1,1,0,1,1
301,302,1,0.003,0.014,0.461,210.0,231.6,240.0,0,0,0,0,1,1,0,1,1
301,303,1,0.055,0.211,0.057,210.0,249.6,264.0,0,0,0,0,1,1,0,1,1
301,305,1,0.022,0.085,0.023,210.0,249.6,264.0,0,0,0,0,1,1,0,1,1
302,304,1,0.033,0.127,0.034,210.0,249.6,264.0,0,0,0,0,1,1,0,1,1
302,306,1,0.05,0.192,0.052,210.0,249.6,264.0,0,0,0,0,1,1,0,1,1
303,309,1,0.031,0.119,0.032,210.0,249.6,264.0,0,0,0,0,1,1,0,1,1
304,309,1,0.027,0.104,0.028,210.0,249.6,264.0,0,0,0,0,1,1,0,1,1
305,310,1,0.023,0.088,0.024,210.0,249.6,264.0,0,0,0,0,1,1,0,1,1
306,310,1,0.014,0.061,2.459,210.0,231.6,240.0,0,0,0,0,1,1,0,1,1
307,308,1,0.016,0.061,0.017,210.0,249.6,264.0,0,0,0,0,1,1,0,1,1
308,309,1,0.043,0.165,0.045,210.0,249.6,264.0,0,0,0,0,1,1,0,1,1
308,310,1,0.043,0.165,0.045,210.0,249.6,264.0,0,0,0,0,1,1,0,1,1
311,313,1,0.006,0.048,0.1,600.0,720.0,750.0,0,0,0,0,1,1,0,1,1
311,314,1,0.005,0.042,0.088,600.0,720.0,750.0,0,0,0,0,1,1,0,1,1
312,313,1,0.006,0.048,0.1,600.0,720.0,750.0,0,0,0,0,1,1,0,1,1
312,323,1,0.012,0.097,0.203,600.0,720.0,750.0,0,0,0,0,1,1,0,1,1
313,323,1,0.011,0.087,0.182,600.0,720.0,750.0,0,0,0,0,1,1,0,1,1
314,316,1,0.005,0.059,0.082,600.0,720.0,750.0,0,0,0,0,1,1,0,1,1
315,316,1,0.002,0.017,0.036,600.0,720.0,750.0,0,0,0,0,1,1,0,1,1
315,321,1,0.006,0.049,0.103,600.0,720.0,750.0,0,0,0,0,1,1,0,1,1
315,321,2,0.006,0.049,0.103,600.0,720.0,750.0,0,0,0,0,1,1,0,1,1
315,324,1,0.007,0.052,0.109,600.0,720.0,750.0,0,0,0,0,1,1,0,1,1
316,317,1,0.003,0.026,0.055,600.0,720.0,750.0,0,0,0,0,1,1,0,1,1
316,319,1,0.003,0.023,0.049,600.0,720.0,750.0,0,0,0,0,1,1,0,1,1
317,318,1,0.002,0.014,0.03,600.0,720.0,750.0,0,0,0,0,1,1,0,1,1
317,322,1,0.014,0.105,0.221,600.0,720.0,750.0,0,0,0,0,1,1,0,1,1
318,223,1,0.013,0.104,0.218,600.0,720.0,750.0,0,0,0,0,1,1,0,1,1
318,321,1,0.003,0.026,0.055,600.0,720.0,750.0,0,0,0,0,1,1,0,1,1
318,321,2,0.003,0.026,0.055,600.0,720.0,750.0,0,0,0,0,1,1,0,1,1
319,320,1,0.005,0.04,0.083,600.0,720.0,750.0,0,0,0,0,1,1,0,1,1
319,320,2,0.005,0.04,0.083,600.0,720.0,750.0,0,0,0,0,1,1,0,1,1
320,323,1,0.003,0.022,0.046,600.0,720.0,750.0,0,0,0,0,1,1,0,1,1
320,323,2,0.003,0.022,0.046,600.0,720.0,750.0,0,0,0,0,1,1,0,1,1
321,322,1,0.009,0.068,0.142,600.0,720.0,750.0,0,0,0,0,1,1,0,1,1
323,325,1,0,0.009,0,866.4,1071.6,1071.6,0,0,0,0,1,1,0,1,1
325,121,1,0.012,0.097,0.203,600.0,720.0,750.0,0,0,0,0,1,1,0,1,1
0 / END OF BRANCH DATA, BEGIN TRANSFORMER DATA
  103 ,  124 , 0,  1 , 1, 1, 1, 0, 0, 2, '            ',  1 , 1, 1
   0.002000 ,  0.084000 ,  100.000000
   1.015000 , 0,  0.000000 ,  400.000000 ,  510.000000 ,  600.000000 , 0, 0,  1.10 ,  0.90 ,  1.10 ,  0.90 , 33, 0, 0, 0
   1.000000, 0
  109 ,  111 , 0,  1 , 1, 1, 1, 0, 0, 2, '            ',  1 , 1, 1
   0.002000 ,  0.084000 ,  100.000000
   1.030000 , 0,  0.000000 ,  400.000000 ,  510.000000 ,  600.000000 , 0, 0,  1.10 ,  0.90 ,  1.10 ,  0.90 , 33, 0, 0, 0
   1.000000, 0
  109 ,  112 , 0,  1 , 1, 1, 1, 0, 0, 2, '            ',  1 , 1, 1
   0.002000 ,  0.084000 ,  100.000000
   1.030000 , 0,  0.000000 ,  400.000000 ,  510.000000 ,  600.000000 , 0, 0,  1.10 ,  0.90 ,  1.10 ,  0.90 , 33, 0, 0, 0
   1.000000, 0
  110 ,  111 , 0,  1 , 1, 1, 1, 0, 0, 2, '            ',  1 , 1, 1
   0.002000 ,  0.084000 ,  100.000000
   1.015000 , 0,  0.000000 ,  400.000000 ,  510.000000 ,  600.000000 , 0, 0,  1.10 ,  0.90 ,  1.10 ,  0.90 , 33, 0, 0, 0
   1.000000, 0
  110 ,  112 , 0,  1 , 1, 1, 1, 0, 0, 2, '            ',  1 , 1, 1
   0.002000 ,  0.084000 ,  100.000000
   1.015000 , 0,  0.000000 ,  400.000000 ,  510.000000 ,  600.000000 , 0, 0,  1.10 ,  0.90 ,  1.10 ,  0.90 , 33, 0, 0, 0
   1.000000, 0
  203 ,  224 , 0,  1 , 1, 1, 1, 0, 0, 2, '            ',  1 , 1, 1
   0.002000 ,  0.084000 ,  100.000000
   1.015000 , 0,  0.000000 ,  400.000000 ,  510.000000 ,  600.000000 , 0, 0,  1.10 ,  0.90 ,  1.10 ,  0.90 , 33, 0, 0, 0
   1.000000, 0
  209 ,  211 , 0,  1 , 1, 1, 1, 0, 0, 2, '            ',  1 , 1, 1
   0.002000 ,  0.084000 ,  100.000000
   1.030000 , 0,  0.000000 ,  400.000000 ,  510.000000 ,  600.000000 , 0, 0,  1.10 ,  0.90 ,  1.10 ,  0.90 , 33, 0, 0, 0
   1.000000, 0
  209 ,  212 , 0,  1 , 1, 1, 1, 0, 0, 2, '            ',  1 , 1, 1
   0.002000 ,  0.084000 ,  100.000000
   1.030000 , 0,  0.000000 ,  400.000000 ,  510.000000 ,  600.000000 , 0, 0,  1.10 ,  0.90 ,  1.10 ,  0.90 , 33, 0, 0, 0
   1.000000, 0
  210 ,  211 , 0,  1 , 1, 1, 1, 0, 0, 2, '            ',  1 , 1, 1
   0.002000 ,  0.084000 ,  100.000000
   1.015000 , 0,  0.000000 ,  400.000000 ,  510.000000 ,  600.000000 , 0, 0,  1.10 ,  0.90 ,  1.10 ,  0.90 , 33, 0, 0, 0
   1.000000, 0
  210 ,  212 , 0,  1 , 1, 1, 1, 0, 0, 2, '            ',  1 , 1, 1
   0.002000 ,  0.084000 ,  100.000000
   1.015000 , 0,  0.000000 ,  400.000000 ,  510.000000 ,  600.000000 , 0, 0,  1.10 ,  0.90 ,  1.10 ,  0.90 , 33, 0, 0, 0
   1.000000, 0
  303 ,  324 , 0,  1 , 1, 1, 1, 0, 0, 2, '            ',  1 , 1, 1
   0.002000 ,  0.084000 ,  100.000000
   1.015000 , 0,  0.000000 ,  400.000000 ,  510.000000 ,  600.000000 , 0, 0,  1.10 ,  0.90 ,  1.10 ,  0.90 , 33, 0, 0, 0
   1.000000, 0
  309 ,  311 , 0,  1 , 1, 1, 1, 0, 0, 2, '            ',  1 , 1, 1
   0.002000 ,  0.084000 ,  100.000000
   1.030000 , 0,  0.000000 ,  400.000000 ,  510.000000 ,  600.000000 , 0, 0,  1.10 ,  0.90 ,  1.10 ,  0.90 , 33, 0, 0, 0
   1.000000, 0
  309 ,  312 , 0,  1 , 1, 1, 1, 0, 0, 2, '            ',  1 , 1, 1
   0.002000 ,  0.084000 ,  100.000000
   1.030000 , 0,  0.000000 ,  400.000000 ,  510.000000 ,  600.000000 , 0, 0,  1.10 ,  0.90 ,  1.10 ,  0.90 , 33, 0, 0, 0
   1.000000, 0
  310 ,  311 , 0,  1 , 1, 1, 1, 0, 0, 2, '            ',  1 , 1, 1
   0.002000 ,  0.084000 ,  100.000000
   1.015000 , 0,  0.000000 ,  400.000000 ,  510.000000 ,  600.000000 , 0, 0,  1.10 ,  0.90 ,  1.10 ,  0.90 , 33, 0, 0, 0
   1.000000, 0
  310 ,  312 , 0,  1 , 1, 1, 1, 0, 0, 2, '            ',  1 , 1, 1
   0.002000 ,  0.084000 ,  100.000000
   1.015000 , 0,  0.000000 ,  400.000000 ,  510.000000 ,  600.000000 , 0, 0,  1.10 ,  0.90 ,  1.10 ,  0.90 , 33, 0, 0, 0
   1.000000, 0
0 / END OF TRANSFORMER DATA, BEGIN AREA DATA
0 / END OF AREA DATA, BEGIN TWO-TERMINAL DC DATA
0 / END OF TWO-TERMINAL DC DATA, BEGIN VSC DC LINE DATA
0 / END OF VSC DC LINE DATA, BEGIN SWITCHED SHUNT DATA
0 / END OF SWITCHED SHUNT DATA, BEGIN IMPEDANCE CORRECTION DATA
0 / END OF IMPEDANCE CORRECTION DATA, BEGIN MULTI-TERMINAL DC DATA
0 / END OF MULTI-TERMINAL DC DATA, BEGIN MULTI-SECTION LINE DATA
0 / END OF MULTI-SECTION LINE DATA, BEGIN ZONE DATA
0 / END OF ZONE DATA, BEGIN INTER-AREA TRANSFER DATA
0 / END OF INTER-AREA TRANSFER DATA, BEGIN OWNER DATA
0 / END OF OWNER DATA, BEGIN FACTS CONTROL DEVICE DATA
0 / END OF FACTS CONTROL DEVICE DATA
0 / END OF SWITCHED SHUNT DATA, BEGIN GNE DATA
0 / END OF GNE DATA, BEGIN INDUCTION MACHINE DATA
0 / END OF INDUCTION MACHINE DATA
Q 
